FoamFile
{
    version     2.0;
    format      ascii;
    class       dictionary;
    object      blockMeshDict;
}

// Exported by SnappyHexMesh GUI add-on for Blender v1.0
// Source file: /home/gagan/Documents/Unicopter.blend
// Export date: 2022-05-27 13:08:29.898907

convertToMeters 1;

vertices
(
(-0.303 -0.3024 -0.59073)
(0.303 -0.3024 -0.59073)
(0.303 0.3024 -0.59073)
(-0.303 0.3024 -0.59073)
(-0.303 -0.3024 0.41927)
(0.303 -0.3024 0.41927)
(0.303 0.3024 0.41927)
(-0.303 0.3024 0.41927)
);

blocks
(
    hex (0 1 2 3 4 5 6 7) (40 40 40) simpleGrading (1 1 1)
);

edges
(
);

boundary
(
    world
    {
        type patch;
        faces
        (
            (3 7 6 2)
            (0 4 7 3)
            (2 6 5 1)
            (1 5 4 0)
            (0 3 2 1)
            (4 5 6 7)
        );
    }
);
