FoamFile
{
    version         2;
    format          ascii;
    class           dictionary;
    object          surfaceFeaturesDict;
}

// Exported by SnappyHexMesh GUI add-on for Blender v1.0
// Source file: /home/gagan/Documents/Unicopter.blend
// Export date: 2022-05-27 13:08:29.898851




AMI_one.obj
{
    extractionMethod extractFromSurface;
    extractFromSurfaceCoeffs { includedAngle 120; }

}

AMI_two.obj
{
    extractionMethod extractFromSurface;
    extractFromSurfaceCoeffs { includedAngle 120; }

}



Rotor_one.obj
{
    extractionMethod extractFromSurface;
    extractFromSurfaceCoeffs { includedAngle 120; }

}


Rotor_two.obj
{
    extractionMethod extractFromSurface;
    extractFromSurfaceCoeffs { includedAngle 120; }

}





domain.obj
{
    extractionMethod extractFromSurface;
    extractFromSurfaceCoeffs { includedAngle 120; }

}
