/*--------------------------------*- C++ -*----------------------------------*\
| =========                 |                                                 |
| \\      /  F ield         | OpenFOAM: The Open Source CFD Toolbox           |
|  \\    /   O peration     | Version:  v2112                                 |
|   \\  /    A nd           | Website:  www.openfoam.com                      |
|    \\/     M anipulation  |                                                 |
\*---------------------------------------------------------------------------*/
FoamFile
{
    version     2.0;
    format      ascii;
    class       dictionary;
    object      dynamicMeshDict;
}
// * * * * * * * * * * * * * * * * * * * * * * * * * * * * * * * * * * * * * //

dynamicFvMesh   dynamicMotionSolverFvMesh;

motionSolverLibs (fvMotionSolvers);

motionSolver    solidBody;

cellZone        AMI_one;

solidBodyMotionFunction  rotatingMotion;

origin      (0 0 0.095342);
axis        (0 0 1);
omega       261.8; // rad/s

motionSolver    solidBody;

cellZone        AMI_two;

solidBodyMotionFunction  rotatingMotion;

origin      (0 0 0.077449);
axis        (0 0 1);
omega       -261.8; // rad/s



// ************************************************************************* //
